Test_Network/condensed/network_18/Feeder_3/Lines.txt
New Line.LINE122 Bus1=120 Bus2=123 phases=3 Linecode=4c_.1 Length=0.24947 Units=m
New Line.LINE127 Bus1=123 Bus2=128 phases=3 Linecode=2c_.0225 Length=1.7957 Units=m
New Line.LINE132 Bus1=128 Bus2=133 phases=3 Linecode=2c_.0225 Length=0.88631 Units=m
New Line.LINE136 Bus1=133 Bus2=137 phases=3 Linecode=2c_.0225 Length=1.5824 Units=m
New Line.LINE140 Bus1=137 Bus2=141 phases=3 Linecode=2c_.0225 Length=1.4226 Units=m
New Line.LINE144 Bus1=141 Bus2=145 phases=3 Linecode=2c_.0225 Length=1.1352 Units=m
New Line.LINE148 Bus1=145 Bus2=149 phases=3 Linecode=2c_.0225 Length=0.73574 Units=m
New Line.LINE152 Bus1=149 Bus2=153 phases=3 Linecode=2c_.0225 Length=0.31608 Units=m
New Line.LINE156 Bus1=153 Bus2=157 phases=3 Linecode=2c_.0225 Length=0.51335 Units=m
New Line.LINE160 Bus1=157 Bus2=161 phases=3 Linecode=2c_.0225 Length=6.5139 Units=m
New Line.LINE164 Bus1=161 Bus2=165 phases=3 Linecode=2c_.0225 Length=0.21495 Units=m
New Line.LINE168 Bus1=165 Bus2=169 phases=3 Linecode=2c_.0225 Length=0.18879 Units=m
New Line.LINE172 Bus1=169 Bus2=173 phases=3 Linecode=2c_.0225 Length=0.21114 Units=m
New Line.LINE176 Bus1=173 Bus2=177 phases=3 Linecode=2c_.0225 Length=0.239 Units=m
New Line.LINE180 Bus1=177 Bus2=181 phases=3 Linecode=2c_.0225 Length=0.098731 Units=m
New Line.LINE184 Bus1=181 Bus2=185 phases=3 Linecode=2c_.0225 Length=0.068732 Units=m
New Line.LINE188 Bus1=185 Bus2=189 phases=3 Linecode=2c_.0225 Length=0.05608 Units=m
New Line.LINE192 Bus1=189 Bus2=193 phases=3 Linecode=2c_.0225 Length=0.041232 Units=m
New Line.LINE196 Bus1=193 Bus2=197 phases=3 Linecode=2c_.0225 Length=0.074249 Units=m
New Line.LINE200 Bus1=197 Bus2=201 phases=3 Linecode=2c_.0225 Length=1.6187 Units=m
New Line.LINE204 Bus1=201 Bus2=205 phases=3 Linecode=2c_.0225 Length=1.854 Units=m
New Line.LINE208 Bus1=205 Bus2=209 phases=3 Linecode=2c_.0225 Length=1.4559 Units=m
New Line.LINE212 Bus1=209 Bus2=213 phases=3 Linecode=2c_.0225 Length=1.4608 Units=m
New Line.LINE216 Bus1=213 Bus2=217 phases=3 Linecode=2c_.0225 Length=0.18752 Units=m
New Line.LINE220 Bus1=217 Bus2=221 phases=3 Linecode=2c_.0225 Length=0.12889 Units=m
New Line.LINE223 Bus1=219 Bus2=224 phases=3 Linecode=4c_.1 Length=3.2086 Units=m
New Line.LINE225 Bus1=221 Bus2=226 phases=3 Linecode=2c_.0225 Length=0.09265 Units=m
New Line.LINE228 Bus1=224 Bus2=229 phases=3 Linecode=4c_.1 Length=2.9914 Units=m
New Line.LINE229 Bus1=226 Bus2=230 phases=3 Linecode=2c_.0225 Length=0.118 Units=m
New Line.LINE232 Bus1=229 Bus2=233 phases=3 Linecode=4c_.1 Length=1.7873 Units=m
New Line.LINE233 Bus1=230 Bus2=234 phases=3 Linecode=2c_.0225 Length=0.084001 Units=m
New Line.LINE236 Bus1=233 Bus2=237 phases=3 Linecode=4c_.1 Length=2.0229 Units=m
New Line.LINE237 Bus1=234 Bus2=238 phases=3 Linecode=2c_.0225 Length=0.085614 Units=m
New Line.LINE240 Bus1=237 Bus2=241 phases=3 Linecode=4c_.1 Length=1.2179 Units=m
New Line.LINE241 Bus1=238 Bus2=242 phases=3 Linecode=2c_.0225 Length=0.10062 Units=m
New Line.LINE244 Bus1=241 Bus2=245 phases=3 Linecode=4c_.1 Length=2.2916 Units=m
New Line.LINE245 Bus1=242 Bus2=246 phases=3 Linecode=2c_.0225 Length=0.39042 Units=m
New Line.LINE248 Bus1=245 Bus2=249 phases=3 Linecode=4c_.1 Length=2.386 Units=m
New Line.LINE249 Bus1=246 Bus2=250 phases=3 Linecode=2c_.0225 Length=0.75047 Units=m
New Line.LINE252 Bus1=249 Bus2=253 phases=3 Linecode=4c_.06_UA Length=0.59225 Units=m
New Line.LINE253 Bus1=250 Bus2=254 phases=3 Linecode=2c_.0225 Length=2.1065 Units=m
New Line.LINE256 Bus1=253 Bus2=257 phases=3 Linecode=4c_.06_UA Length=0.19383 Units=m
New Line.LINE259 Bus1=257 Bus2=260 phases=3 Linecode=4c_.06_UA Length=1.7396 Units=m
New Line.LINE263 Bus1=260 Bus2=264 phases=3 Linecode=4c_.06_UA Length=0.33395 Units=m
New Line.LINE327 Bus1=317 Bus2=328 phases=3 Linecode=3c_.06_UA Length=2.0176 Units=m
New Line.LINE339 Bus1=329 Bus2=340 phases=3 Linecode=3c_.06_UA Length=2.1857 Units=m
New Line.LINE354 Bus1=344 Bus2=355 phases=3 Linecode=4c_.06_UA Length=7.1758 Units=m
New Line.LINE366 Bus1=355 Bus2=367 phases=3 Linecode=4c_.06_UA Length=5.5846 Units=m
New Line.LINE377 Bus1=367 Bus2=378 phases=3 Linecode=4c_.06_UA Length=5.5207 Units=m
New Line.LINE388 Bus1=378 Bus2=389 phases=3 Linecode=4c_.06_UA Length=2.9898 Units=m
New Line.LINE400 Bus1=389 Bus2=401 phases=3 Linecode=4c_.06_UA Length=0.31919 Units=m
New Line.LINE409 Bus1=398 Bus2=410 phases=3 Linecode=2c_.0225 Length=2.7156 Units=m
New Line.LINE410 Bus1=398 Bus2=411 phases=3 Linecode=2c_.0225 Length=2.6449 Units=m
New Line.LINE413 Bus1=401 Bus2=414 phases=3 Linecode=4c_.06_UA Length=0.19185 Units=m
New Line.LINE423 Bus1=410 Bus2=424 phases=3 Linecode=3c_.06_UA Length=1.1738 Units=m
New Line.LINE425 Bus1=411 Bus2=426 phases=3 Linecode=3c_.06_UA Length=4.102 Units=m
New Line.LINE428 Bus1=414 Bus2=429 phases=3 Linecode=4c_.06_UA Length=1.112 Units=m
New Line.LINE437 Bus1=422 Bus2=438 phases=3 Linecode=4c_.1 Length=0.76883 Units=m
New Line.LINE442 Bus1=429 Bus2=443 phases=3 Linecode=4c_.06_UA Length=0.21974 Units=m
New Line.LINE457 Bus1=443 Bus2=458 phases=3 Linecode=4c_.06_UA Length=0.21077 Units=m
New Line.LINE473 Bus1=458 Bus2=474 phases=3 Linecode=4c_.06_UA Length=0.20716 Units=m
New Line.LINE489 Bus1=474 Bus2=490 phases=3 Linecode=4c_.06_UA Length=0.18116 Units=m
New Line.LINE505 Bus1=490 Bus2=506 phases=3 Linecode=4c_.06_UA Length=2.6345 Units=m
New Line.LINE522 Bus1=506 Bus2=523 phases=3 Linecode=2c_.0225 Length=0.24725 Units=m
New Line.LINE540 Bus1=523 Bus2=541 phases=3 Linecode=2c_.0225 Length=0.123 Units=m
New Line.LINE557 Bus1=541 Bus2=558 phases=3 Linecode=2c_.0225 Length=0.07398 Units=m
New Line.LINE559 Bus1=543 Bus2=560 phases=3 Linecode=2c_.0225 Length=1.4188 Units=m
New Line.LINE575 Bus1=558 Bus2=576 phases=3 Linecode=2c_.0225 Length=0.11204 Units=m
New Line.LINE591 Bus1=576 Bus2=592 phases=3 Linecode=2c_.0225 Length=0.12162 Units=m
New Line.LINE607 Bus1=592 Bus2=608 phases=3 Linecode=2c_.0225 Length=0.15259 Units=m
New Line.LINE613 Bus1=598 Bus2=614 phases=3 Linecode=25_SAC_XC Length=3.6435 Units=m
New Line.LINE614 Bus1=599 Bus2=615 phases=3 Linecode=3c_.06_UA Length=2.031 Units=m
New Line.LINE623 Bus1=608 Bus2=624 phases=3 Linecode=2c_.0225 Length=0.12454 Units=m
New Line.LINE630 Bus1=615 Bus2=631 phases=3 Linecode=3c_.06_UA Length=4.3919 Units=m
New Line.LINE640 Bus1=624 Bus2=641 phases=3 Linecode=2c_.0225 Length=0.13563 Units=m
New Line.LINE656 Bus1=641 Bus2=657 phases=3 Linecode=2c_.0225 Length=0.12578 Units=m
New Line.LINE670 Bus1=657 Bus2=671 phases=3 Linecode=2c_.0225 Length=0.389 Units=m
New Line.LINE684 Bus1=671 Bus2=685 phases=3 Linecode=2c_.0225 Length=2.2745 Units=m
New Line.LINE698 Bus1=685 Bus2=699 phases=3 Linecode=2c_.0225 Length=3.3533 Units=m
New Line.LINE700 Bus1=686 Bus2=701 phases=3 Linecode=2c_.0225 Length=3.3946 Units=m
New Line.LINE712 Bus1=697 Bus2=713 phases=3 Linecode=25_SAC_PC Length=2.5647 Units=m
New Line.LINE714 Bus1=699 Bus2=715 phases=3 Linecode=2c_.0225 Length=7.3507 Units=m
New Line.LINE721 Bus1=706 Bus2=722 phases=3 Linecode=2c_.0225 Length=4.2768 Units=m
New Line.LINE729 Bus1=715 Bus2=730 phases=3 Linecode=2c_.0225 Length=1.8961 Units=m
New Line.LINE737 Bus1=723 Bus2=738 phases=3 Linecode=2c_.0225 Length=4.955 Units=m
New Line.LINE744 Bus1=730 Bus2=745 phases=3 Linecode=2c_.0225 Length=0.80138 Units=m
New Line.LINE758 Bus1=745 Bus2=759 phases=3 Linecode=2c_.0225 Length=0.398 Units=m
New Line.LINE772 Bus1=759 Bus2=773 phases=3 Linecode=2c_.0225 Length=0.29711 Units=m
New Line.LINE784 Bus1=770 Bus2=785 phases=3 Linecode=25_SAC_PC Length=2.1615 Units=m
New Line.LINE787 Bus1=773 Bus2=788 phases=3 Linecode=2c_.0225 Length=0.38794 Units=m
New Line.LINE801 Bus1=788 Bus2=802 phases=3 Linecode=2c_.0225 Length=0.34125 Units=m
New Line.LINE807 Bus1=793 Bus2=808 phases=3 Linecode=2c_.0225 Length=1.7959 Units=m
New Line.LINE816 Bus1=802 Bus2=817 phases=3 Linecode=2c_.0225 Length=0.8989 Units=m
New Line.LINE824 Bus1=811 Bus2=825 phases=3 Linecode=4c_.1 Length=4.9492 Units=m
New Line.LINE830 Bus1=817 Bus2=831 phases=3 Linecode=2c_.0225 Length=3.4777 Units=m
New Line.LINE838 Bus1=825 Bus2=839 phases=3 Linecode=4c_.1 Length=2.271 Units=m
New Line.LINE844 Bus1=831 Bus2=845 phases=3 Linecode=2c_.0225 Length=0.2097 Units=m
New Line.LINE848 Bus1=834 Bus2=849 phases=3 Linecode=4c_.1 Length=1.1232 Units=m
New Line.LINE852 Bus1=839 Bus2=853 phases=3 Linecode=4c_.1 Length=7.5075 Units=m
New Line.LINE858 Bus1=845 Bus2=859 phases=3 Linecode=2c_.0225 Length=0.525 Units=m
New Line.LINE862 Bus1=849 Bus2=863 phases=3 Linecode=4c_.1 Length=1.3182 Units=m
New Line.LINE866 Bus1=853 Bus2=867 phases=3 Linecode=4c_.1 Length=2.5099 Units=m
New Line.LINE872 Bus1=859 Bus2=873 phases=3 Linecode=2c_.0225 Length=0.49773 Units=m
New Line.LINE876 Bus1=863 Bus2=877 phases=3 Linecode=4c_.1 Length=2.6225 Units=m
New Line.LINE880 Bus1=867 Bus2=881 phases=3 Linecode=4c_.1 Length=2.3175 Units=m
New Line.LINE886 Bus1=873 Bus2=887 phases=3 Linecode=2c_.0225 Length=0.41764 Units=m
New Line.LINE889 Bus1=877 Bus2=890 phases=3 Linecode=4c_.1 Length=0.92322 Units=m
New Line.LINE893 Bus1=881 Bus2=894 phases=3 Linecode=2c_.0225 Length=5.9878 Units=m
New Line.LINE899 Bus1=887 Bus2=900 phases=3 Linecode=2c_.0225 Length=0.398 Units=m
New Line.LINE902 Bus1=890 Bus2=903 phases=3 Linecode=4c_.1 Length=0.5563 Units=m
New Line.LINE906 Bus1=894 Bus2=907 phases=3 Linecode=2c_.0225 Length=0.5192 Units=m
New Line.LINE912 Bus1=900 Bus2=913 phases=3 Linecode=2c_.0225 Length=1.4653 Units=m
New Line.LINE915 Bus1=903 Bus2=916 phases=3 Linecode=4c_.1 Length=0.65962 Units=m
New Line.LINE918 Bus1=907 Bus2=919 phases=3 Linecode=2c_.0225 Length=0.079195 Units=m
New Line.LINE924 Bus1=913 Bus2=925 phases=3 Linecode=2c_.0225 Length=1.9229 Units=m
New Line.LINE926 Bus1=916 Bus2=927 phases=3 Linecode=4c_.1 Length=0.59104 Units=m
New Line.LINE929 Bus1=919 Bus2=930 phases=3 Linecode=2c_.0225 Length=0.070435 Units=m
New Line.LINE936 Bus1=927 Bus2=937 phases=3 Linecode=4c_.1 Length=0.65962 Units=m
New Line.LINE939 Bus1=930 Bus2=940 phases=3 Linecode=2c_.0225 Length=0.10515 Units=m
New Line.LINE945 Bus1=937 Bus2=946 phases=3 Linecode=4c_.1 Length=0.97744 Units=m
New Line.LINE948 Bus1=940 Bus2=949 phases=3 Linecode=2c_.0225 Length=0.097801 Units=m
New Line.LINE955 Bus1=946 Bus2=956 phases=3 Linecode=4c_.1 Length=0.19942 Units=m
New Line.LINE958 Bus1=949 Bus2=959 phases=3 Linecode=2c_.0225 Length=0.10668 Units=m
New Line.LINE964 Bus1=956 Bus2=965 phases=3 Linecode=4c_.1 Length=0.031321 Units=m
New Line.LINE967 Bus1=959 Bus2=968 phases=3 Linecode=2c_.0225 Length=0.11165 Units=m
New Line.LINE972 Bus1=965 Bus2=973 phases=3 Linecode=4c_.1 Length=0.07343 Units=m
New Line.LINE975 Bus1=968 Bus2=976 phases=3 Linecode=2c_.0225 Length=0.14442 Units=m
New Line.LINE980 Bus1=973 Bus2=981 phases=3 Linecode=4c_.1 Length=0.1591 Units=m
New Line.LINE983 Bus1=976 Bus2=984 phases=3 Linecode=2c_.0225 Length=0.20506 Units=m
New Line.LINE988 Bus1=981 Bus2=989 phases=3 Linecode=4c_.1 Length=0.32006 Units=m
New Line.LINE990 Bus1=982 Bus2=991 phases=3 Linecode=2c_.0225 Length=3.6553 Units=m
New Line.LINE992 Bus1=984 Bus2=993 phases=3 Linecode=2c_.0225 Length=0.11211 Units=m
New Line.LINE996 Bus1=989 Bus2=997 phases=3 Linecode=4c_.1 Length=0.36237 Units=m
New Line.LINE999 Bus1=993 Bus2=1000 phases=3 Linecode=2c_.0225 Length=0.12249 Units=m
New Line.LINE1003 Bus1=997 Bus2=1004 phases=3 Linecode=4c_.1 Length=0.37759 Units=m
New Line.LINE1006 Bus1=1000 Bus2=1007 phases=3 Linecode=2c_.0225 Length=0.10517 Units=m
New Line.LINE1009 Bus1=1004 Bus2=1010 phases=3 Linecode=4c_.1 Length=0.31911 Units=m
New Line.LINE1012 Bus1=1007 Bus2=1013 phases=3 Linecode=2c_.0225 Length=0.13703 Units=m
New Line.LINE1015 Bus1=1010 Bus2=1016 phases=3 Linecode=4c_.1 Length=0.4 Units=m
New Line.LINE1018 Bus1=1013 Bus2=1019 phases=3 Linecode=2c_.0225 Length=0.13919 Units=m
New Line.LINE1021 Bus1=1016 Bus2=1022 phases=3 Linecode=4c_.1 Length=0.33702 Units=m
New Line.LINE1024 Bus1=1019 Bus2=1025 phases=3 Linecode=2c_.0225 Length=0.13403 Units=m
New Line.LINE1027 Bus1=1022 Bus2=1028 phases=3 Linecode=4c_.1 Length=0.57089 Units=m
New Line.LINE1030 Bus1=1025 Bus2=1031 phases=3 Linecode=2c_.0225 Length=0.12813 Units=m
New Line.LINE1033 Bus1=1028 Bus2=1034 phases=3 Linecode=4c_.1 Length=1.6221 Units=m
New Line.LINE1036 Bus1=1031 Bus2=1037 phases=3 Linecode=2c_.0225 Length=0.088685 Units=m
New Line.LINE1039 Bus1=1034 Bus2=1040 phases=3 Linecode=4c_.1 Length=0.16851 Units=m
New Line.LINE1042 Bus1=1037 Bus2=1043 phases=3 Linecode=2c_.0225 Length=0.067897 Units=m
New Line.LINE1045 Bus1=1040 Bus2=1046 phases=3 Linecode=4c_.1 Length=0.077103 Units=m
New Line.LINE1048 Bus1=1043 Bus2=1049 phases=3 Linecode=2c_.0225 Length=0.084723 Units=m
New Line.LINE1051 Bus1=1046 Bus2=1052 phases=3 Linecode=4c_.1 Length=0.13008 Units=m
New Line.LINE1054 Bus1=1048 Bus2=1055 phases=3 Linecode=3c_.06_UA Length=2.9923 Units=m
New Line.LINE1055 Bus1=1049 Bus2=1056 phases=3 Linecode=2c_.0225 Length=0.10657 Units=m
New Line.LINE1058 Bus1=1052 Bus2=1059 phases=3 Linecode=4c_.1 Length=0.23888 Units=m
New Line.LINE1062 Bus1=1055 Bus2=1063 phases=3 Linecode=3c_.06_UA Length=6.0251 Units=m
New Line.LINE1063 Bus1=1056 Bus2=1064 phases=3 Linecode=2c_.0225 Length=0.094339 Units=m
New Line.LINE1066 Bus1=1059 Bus2=1067 phases=3 Linecode=4c_.075_UA Length=2.5403 Units=m
New Line.LINE1069 Bus1=1061 Bus2=1070 phases=3 Linecode=3c_.06_UA Length=3.656 Units=m
New Line.LINE1071 Bus1=1064 Bus2=1072 phases=3 Linecode=2c_.0225 Length=0.37823 Units=m
New Line.LINE1074 Bus1=1067 Bus2=1075 phases=3 Linecode=4c_.075_UA Length=0.51856 Units=m
New Line.LINE1078 Bus1=1072 Bus2=1079 phases=3 Linecode=2c_.0225 Length=0.16411 Units=m
New Line.LINE1081 Bus1=1075 Bus2=1082 phases=3 Linecode=4c_.075_UA Length=1.6102 Units=m
New Line.LINE1085 Bus1=1079 Bus2=1086 phases=3 Linecode=2c_.0225 Length=4.532 Units=m
New Line.LINE1088 Bus1=1082 Bus2=1089 phases=3 Linecode=4c_.075_UA Length=1.3341 Units=m
New Line.LINE1092 Bus1=1089 Bus2=1093 phases=3 Linecode=4c_.075_UA Length=1.1146 Units=m
New Line.LINE1096 Bus1=1093 Bus2=1097 phases=3 Linecode=4c_.075_UA Length=2.2089 Units=m
New Line.LINE1099 Bus1=1097 Bus2=1100 phases=3 Linecode=4c_.075_UA Length=3.1494 Units=m
New Line.LINE1102 Bus1=1100 Bus2=1103 phases=3 Linecode=4c_.075_UA Length=0.58528 Units=m
New Line.LINE1105 Bus1=1103 Bus2=1106 phases=3 Linecode=4c_.06_UA Length=1.272 Units=m
New Line.LINE1108 Bus1=1106 Bus2=1109 phases=3 Linecode=4c_.06_UA Length=0.55965 Units=m
New Line.LINE1110 Bus1=1107 Bus2=1111 phases=3 Linecode=2c_.0225 Length=2.245 Units=m
New Line.LINE1112 Bus1=1109 Bus2=1113 phases=3 Linecode=4c_.06_UA Length=3.2924 Units=m
New Line.LINE1116 Bus1=1113 Bus2=1117 phases=3 Linecode=4c_.06_UA Length=4.1009 Units=m
New Line.LINE1120 Bus1=1117 Bus2=1121 phases=3 Linecode=4c_.06_UA Length=2.5951 Units=m
New Line.LINE1124 Bus1=1121 Bus2=1125 phases=3 Linecode=4c_.06_UA Length=1.8121 Units=m
New Line.LINE1128 Bus1=1125 Bus2=1129 phases=3 Linecode=4c_.06_UA Length=4.9397 Units=m
New Line.LINE1133 Bus1=1129 Bus2=1134 phases=3 Linecode=4c_.075_UA Length=1.7026 Units=m
New Line.LINE1138 Bus1=1134 Bus2=1139 phases=3 Linecode=4c_.075_UA Length=1.4367 Units=m
New Line.LINE1142 Bus1=1139 Bus2=1143 phases=3 Linecode=4c_.075_UA Length=1.3873 Units=m
New Line.LINE1146 Bus1=1143 Bus2=1147 phases=3 Linecode=4c_.075_UA Length=1.6746 Units=m
New Line.LINE1150 Bus1=1147 Bus2=1151 phases=3 Linecode=4c_.075_UA Length=1.09 Units=m
New Line.LINE1154 Bus1=1151 Bus2=1155 phases=3 Linecode=4c_.075_UA Length=1.4009 Units=m
New Line.LINE1158 Bus1=1155 Bus2=1159 phases=3 Linecode=4c_.075_UA Length=1.6034 Units=m
New Line.LINE1162 Bus1=1159 Bus2=1163 phases=3 Linecode=4c_.075_UA Length=2.0487 Units=m
New Line.LINE1166 Bus1=1163 Bus2=1167 phases=3 Linecode=4c_.075_UA Length=1.9001 Units=m
New Line.LINE1170 Bus1=1167 Bus2=1171 phases=3 Linecode=4c_.075_UA Length=1.9651 Units=m
New Line.LINE1174 Bus1=1171 Bus2=1175 phases=3 Linecode=4c_.075_UA Length=1.5126 Units=m
New Line.LINE1179 Bus1=1175 Bus2=1180 phases=3 Linecode=4c_.075_UA Length=1.345 Units=m
New Line.LINE1183 Bus1=1180 Bus2=1184 phases=3 Linecode=4c_.075_UA Length=2.5732 Units=m
New Line.LINE1187 Bus1=1183 Bus2=1188 phases=3 Linecode=3c_.06_UA Length=3.4053 Units=m
New Line.LINE1188 Bus1=1184 Bus2=1189 phases=3 Linecode=4c_.075_UA Length=1.9759 Units=m
New Line.LINE1191 Bus1=1186 Bus2=1192 phases=3 Linecode=3c_.06_UA Length=2.3195 Units=m
New Line.LINE1193 Bus1=1189 Bus2=1194 phases=3 Linecode=4c_.075_UA Length=1.7596 Units=m
New Line.LINE1197 Bus1=1194 Bus2=1198 phases=3 Linecode=4c_.075_UA Length=1.2946 Units=m
New Line.LINE1202 Bus1=1198 Bus2=1203 phases=3 Linecode=4c_.075_UA Length=0.68916 Units=m
New Line.LINE1207 Bus1=1203 Bus2=1208 phases=3 Linecode=4c_.075_UA Length=0.50744 Units=m
New Line.LINE1212 Bus1=1208 Bus2=1213 phases=3 Linecode=4c_.075_UA Length=0.96001 Units=m
New Line.LINE1216 Bus1=1213 Bus2=1217 phases=3 Linecode=4c_.075_UA Length=0.78662 Units=m
New Line.LINE1220 Bus1=1217 Bus2=1221 phases=3 Linecode=4c_.075_UA Length=0.60803 Units=m
New Line.LINE1224 Bus1=1221 Bus2=1225 phases=3 Linecode=4c_.075_UA Length=0.91155 Units=m
New Line.LINE1228 Bus1=1225 Bus2=1229 phases=3 Linecode=4c_.075_UA Length=0.22424 Units=m
New Line.LINE1232 Bus1=1229 Bus2=1233 phases=3 Linecode=4c_.075_UA Length=0.52387 Units=m
New Line.LINE1236 Bus1=1233 Bus2=1237 phases=3 Linecode=2c_.0225 Length=0.19361 Units=m
New Line.LINE1241 Bus1=1237 Bus2=1242 phases=3 Linecode=2c_.0225 Length=0.072835 Units=m
New Line.LINE1427 Bus1=1424 Bus2=1428 phases=3 Linecode=2c_.0225 Length=1.0474 Units=m
New Line.LINE1455 Bus1=1453 Bus2=1456 phases=3 Linecode=2c_.0225 Length=1.1808 Units=m
New Line.LINECmpd_0 Bus1=1242 Bus2=1453 phases=3 Linecode=2c_.0225 Length=21.527798 Units=m
New Line.LINECmpd_1 Bus1=1 Bus2=86 phases=3 Linecode=4c_.1 Length=113.548311 Units=m
New Line.LINECmpd_2 Bus1=1453 Bus2=1490 phases=3 Linecode=2c_.0225 Length=9.797141 Units=m
New Line.LINECmpd_3 Bus1=120 Bus2=261 phases=3 Linecode=2c_.0225 Length=26.621583 Units=m
New Line.LINECmpd_4 Bus1=366 Bus2=770 phases=3 Linecode=25_SAC_PC Length=7.552495 Units=m
New Line.LINECmpd_5 Bus1=410 Bus2=882 phases=3 Linecode=2c_.0225 Length=13.347464 Units=m
New Line.LINECmpd_6 Bus1=1186 Bus2=1362 phases=3 Linecode=2c_.0225 Length=13.128069 Units=m
New Line.LINECmpd_7 Bus1=811 Bus2=1048 phases=3 Linecode=3c_.06_UA Length=11.761448 Units=m
New Line.LINECmpd_8 Bus1=618 Bus2=693 phases=3 Linecode=4c_.1 Length=12.122 Units=m
New Line.LINECmpd_9 Bus1=1242 Bus2=1424 phases=3 Linecode=2c_.0225 Length=19.38313 Units=m
New Line.LINECmpd_10 Bus1=422 Bus2=793 phases=3 Linecode=2c_.0225 Length=21.29829 Units=m
New Line.LINECmpd_11 Bus1=717 Bus2=982 phases=3 Linecode=2c_.0225 Length=15.78933 Units=m
New Line.LINECmpd_12 Bus1=317 Bus2=595 phases=3 Linecode=2c_.0225 Length=12.161499 Units=m
New Line.LINECmpd_13 Bus1=296 Bus2=317 phases=3 Linecode=2c_.0225 Length=1.95213 Units=m
New Line.LINECmpd_14 Bus1=697 Bus2=933 phases=3 Linecode=25_SAC_PC Length=4.295175 Units=m
New Line.LINECmpd_15 Bus1=834 Bus2=1107 phases=3 Linecode=2c_.0225 Length=16.32894 Units=m
New Line.LINECmpd_16 Bus1=618 Bus2=706 phases=3 Linecode=2c_.0225 Length=8.33478 Units=m
New Line.LINECmpd_17 Bus1=438 Bus2=598 phases=3 Linecode=2c_.0225 Length=8.46843 Units=m
New Line.LINECmpd_18 Bus1=1183 Bus2=1350 phases=3 Linecode=2c_.0225 Length=13.786575 Units=m
New Line.LINECmpd_19 Bus1=411 Bus2=950 phases=3 Linecode=2c_.0225 Length=14.481496 Units=m
New Line.LINECmpd_20 Bus1=501 Bus2=599 phases=3 Linecode=3c_.06_UA Length=8.18236 Units=m
New Line.LINECmpd_21 Bus1=259 Bus2=717 phases=3 Linecode=4c_.1 Length=28.15776 Units=m
New Line.LINECmpd_22 Bus1=717 Bus2=834 phases=3 Linecode=4c_.1 Length=5.48202 Units=m
New Line.LINECmpd_23 Bus1=104 Bus2=225 phases=3 Linecode=25_SAC_PC Length=19.26622 Units=m
New Line.LINECmpd_24 Bus1=219 Bus2=259 phases=3 Linecode=4c_.2 Length=9.110356 Units=m
New Line.LINECmpd_25 Bus1=86 Bus2=104 phases=3 Linecode=4c_.2 Length=11.12794 Units=m
New Line.LINECmpd_26 Bus1=1107 Bus2=1209 phases=3 Linecode=2c_.0225 Length=10.409886 Units=m
New Line.LINECmpd_27 Bus1=1129 Bus2=1174 phases=3 Linecode=2c_.0225 Length=11.893524 Units=m
New Line.LINECmpd_28 Bus1=315 Bus2=686 phases=3 Linecode=25_SAC_PC Length=10.241992 Units=m
New Line.LINECmpd_29 Bus1=982 Bus2=1083 phases=3 Linecode=2c_.0225 Length=6.001917 Units=m
New Line.LINECmpd_30 Bus1=353 Bus2=422 phases=3 Linecode=4c_.1 Length=30.8032 Units=m
New Line.LINECmpd_31 Bus1=501 Bus2=569 phases=3 Linecode=4c_.1 Length=14.201108 Units=m
New Line.LINECmpd_32 Bus1=1055 Bus2=1078 phases=3 Linecode=3c_.06_UA Length=12.7756 Units=m
New Line.LINECmpd_33 Bus1=264 Bus2=294 phases=3 Linecode=4c_.06_UA Length=31.79754 Units=m
New Line.LINECmpd_34 Bus1=315 Bus2=543 phases=3 Linecode=2c_.0225 Length=8.1178 Units=m
New Line.LINECmpd_35 Bus1=366 Bus2=697 phases=3 Linecode=25_SAC_PC Length=8.733475 Units=m
New Line.LINECmpd_36 Bus1=793 Bus2=905 phases=3 Linecode=2c_.0225 Length=12.49778 Units=m
New Line.LINECmpd_37 Bus1=86 Bus2=120 phases=3 Linecode=4c_.1 Length=15.33152 Units=m
New Line.LINECmpd_38 Bus1=259 Bus2=353 phases=3 Linecode=4c_.1 Length=20.14442 Units=m
New Line.LINECmpd_39 Bus1=104 Bus2=219 phases=3 Linecode=4c_.2 Length=48.972677 Units=m
New Line.LINECmpd_40 Bus1=543 Bus2=642 phases=3 Linecode=2c_.0225 Length=6.86146 Units=m
New Line.LINECmpd_41 Bus1=693 Bus2=723 phases=3 Linecode=2c_.0225 Length=7.9033 Units=m
New Line.LINECmpd_42 Bus1=770 Bus2=985 phases=3 Linecode=25_SAC_PC Length=5.635574 Units=m
New Line.LINECmpd_43 Bus1=264 Bus2=296 phases=3 Linecode=2c_.0225 Length=11.8136 Units=m
New Line.LINECmpd_44 Bus1=693 Bus2=811 phases=3 Linecode=4c_.1 Length=29.2285 Units=m
New Line.LINECmpd_45 Bus1=1424 Bus2=1452 phases=3 Linecode=2c_.0225 Length=5.851593 Units=m
New Line.LINECmpd_46 Bus1=353 Bus2=398 phases=3 Linecode=2c_.0225 Length=11.95248 Units=m
New Line.LINECmpd_47 Bus1=569 Bus2=618 phases=3 Linecode=4c_.1 Length=12.5095 Units=m
New Line.LINECmpd_48 Bus1=686 Bus2=914 phases=3 Linecode=25_SAC_PC Length=6.020619 Units=m
New Line.LINECmpd_49 Bus1=913 Bus2=1001 phases=3 Linecode=2c_.0225 Length=6.49259 Units=m
New Line.LINECmpd_50 Bus1=344 Bus2=366 phases=3 Linecode=25_SAC_PC Length=13.0678 Units=m
New Line.LINECmpd_51 Bus1=1048 Bus2=1061 phases=3 Linecode=3c_.06_UA Length=3.0759 Units=m
New Line.LINECmpd_52 Bus1=294 Bus2=344 phases=3 Linecode=4c_.06_UA Length=24.658871 Units=m
New Line.LINECmpd_53 Bus1=294 Bus2=315 phases=3 Linecode=25_SAC_PC Length=11.4511 Units=m
New Line.LINECmpd_54 Bus1=438 Bus2=501 phases=3 Linecode=4c_.1 Length=25.7398 Units=m
New Line.LINECmpd_55 Bus1=598 Bus2=719 phases=3 Linecode=2c_.0225 Length=8.447328 Units=m
New Line.LINECmpd_56 Bus1=296 Bus2=329 phases=3 Linecode=3c_.06_UA Length=9.4382 Units=m
New Line.LINECmpd_57 Bus1=706 Bus2=751 phases=3 Linecode=2c_.0225 Length=7.37343 Units=m
New Line.LINECmpd_58 Bus1=1061 Bus2=1084 phases=3 Linecode=3c_.06_UA Length=10.4876 Units=m
New Line.LINECmpd_59 Bus1=599 Bus2=648 phases=3 Linecode=3c_.06_UA Length=6.7466 Units=m
New Line.LINECmpd_60 Bus1=615 Bus2=690 phases=3 Linecode=3c_.06_UA Length=11.8103 Units=m
New Line.LINECmpd_61 Bus1=329 Bus2=361 phases=3 Linecode=3c_.06_UA Length=9.2041 Units=m
New Line.LINECmpd_62 Bus1=569 Bus2=601 phases=3 Linecode=2c_.0225 Length=12.1325 Units=m
New Line.LINECmpd_63 Bus1=1174 Bus2=1186 phases=3 Linecode=2c_.0225 Length=3.12574 Units=m
New Line.LINECmpd_64 Bus1=723 Bus2=810 phases=3 Linecode=2c_.0225 Length=8.8391 Units=m
New Line.LINECmpd_65 Bus1=1079 Bus2=1094 phases=3 Linecode=2c_.0225 Length=8.58321 Units=m
New Line.LINECmpd_66 Bus1=1174 Bus2=1183 phases=3 Linecode=2c_.0225 Length=2.88937 Units=m
